%chk=IP4_2.chk
#p opt freq apfd/6-311+g(2d,p) scrf=(solvent=chloroform)

Structure: IP4_2. Calculation: opt freq apfd/6-311+g(2d,p) 

0 1
C 0.092987 0.260393  -0.008319
C  0.046078 0.188903 1.487251
C  1.525604 0.011085 1.861606
C  2.211106  -0.573871 0.608861
C 1.270019  -0.156399  -0.488594
O  2.094594 1.291701 2.166804
C  2.340333  -2.091223 0.668745
H -0.380508 1.102043 1.912702
H  3.195346  -0.118658 0.450618
H -0.552945  -0.675760 1.790852
H  1.649111  -0.612955 2.752136
H -0.743898 0.576691  -0.616293
H  1.517247  -0.219601  -1.540244
H 1.974748 1.850426 1.377714
H  2.998026  -2.386429 1.493145
H  2.769557  -2.482861  -0.260019
H  1.371209  -2.579399 0.822116

