%chk=IP4_3.chk
#p opt freq apfd/6-311+g(2d,p) scrf=(solvent=chloroform)

Structure: IP4_3. Calculation: opt freq apfd/6-311+g(2d,p) 

0 1
C 0.011544 0.141260 0.054228
C  0.065860 0.105611 1.548138
C  1.573001 0.028717 1.844677
C  2.234648  -0.476686 0.545460
C 1.188988  -0.177474  -0.493076
O  2.082367 1.332938 2.149676
C  2.539321  -1.969644 0.592208
H -0.397992 0.997696 1.979110
H  3.149938 0.084495 0.325180
H -0.455928  -0.787812 1.906694
H  1.786515  -0.609324 2.708652
H -0.882578 0.377186  -0.506133
H  1.378145  -0.228846  -1.556905
H 1.569898 1.679493 2.899077
H  3.278103  -2.184868 1.371484
H  2.949471  -2.314354  -0.363418
H  1.643362  -2.563386 0.806405

